Version 4
SHEET 1 1256 680
WIRE 720 -144 512 -144
WIRE 1040 -144 800 -144
WIRE -16 -128 -240 -128
WIRE 288 -128 48 -128
WIRE -624 -80 -624 -112
WIRE 880 -32 736 -32
WIRE 128 -16 -16 -16
WIRE 1040 -16 1040 -144
WIRE 1040 -16 944 -16
WIRE 1088 -16 1040 -16
WIRE 288 0 288 -128
WIRE 288 0 192 0
WIRE 400 0 288 0
WIRE 512 0 512 -144
WIRE 512 0 464 0
WIRE 560 0 512 0
WIRE 736 0 736 -32
WIRE 736 0 624 0
WIRE 880 0 848 0
WIRE -368 16 -416 16
WIRE -240 16 -240 -128
WIRE -240 16 -288 16
WIRE -208 16 -240 16
WIRE -16 16 -16 -16
WIRE -16 16 -128 16
WIRE 128 16 96 16
WIRE -624 32 -624 0
WIRE -624 32 -688 32
WIRE 736 32 736 0
WIRE -16 48 -16 16
WIRE -624 64 -624 32
WIRE -416 64 -416 16
WIRE 848 112 848 0
WIRE 1040 112 1040 -16
WIRE 1040 112 848 112
WIRE 96 128 96 16
WIRE 176 128 96 128
WIRE 288 128 288 0
WIRE 288 128 256 128
WIRE 736 144 736 112
WIRE -16 160 -16 112
WIRE 96 160 96 128
WIRE -624 192 -624 144
WIRE -416 192 -416 144
WIRE 96 272 96 240
FLAG 96 272 0
FLAG -16 160 0
FLAG -416 192 0
FLAG -624 192 VEE
FLAG -624 -112 VCC
FLAG -688 32 0
FLAG 160 -32 VEE
FLAG 160 32 VCC
FLAG 736 144 0
FLAG 1088 -16 out
FLAG 912 -48 VEE
FLAG 912 16 VCC
SYMBOL res 272 112 R90
WINDOW 0 0 56 VBottom 2
WINDOW 3 32 56 VTop 2
SYMATTR InstName R4
SYMATTR Value 5850
SYMBOL res 80 144 R0
SYMATTR InstName R3
SYMATTR Value 10k
SYMBOL cap 48 -144 R90
WINDOW 0 0 32 VBottom 2
WINDOW 3 32 32 VTop 2
SYMATTR InstName C1
SYMATTR Value 0.795n
SYMBOL cap 0 112 R180
WINDOW 0 24 56 Left 2
WINDOW 3 24 8 Left 2
SYMATTR InstName C2
SYMATTR Value 0.795n
SYMBOL res -112 0 R90
WINDOW 0 0 56 VBottom 2
WINDOW 3 32 56 VTop 2
SYMATTR InstName R1
SYMATTR Value 10k
SYMBOL res -272 0 R90
WINDOW 0 0 56 VBottom 2
WINDOW 3 32 56 VTop 2
SYMATTR InstName R2
SYMATTR Value 10k
SYMBOL voltage -416 48 R0
WINDOW 123 24 124 Left 2
WINDOW 39 0 0 Left 0
SYMATTR InstName V1
SYMATTR Value ""
SYMATTR Value2 AC 1
SYMBOL Misc\\battery -624 -96 R0
SYMATTR InstName V2
SYMATTR Value 12
SYMBOL Misc\\battery -624 48 R0
SYMATTR InstName V3
SYMATTR Value 12
SYMBOL OpAmps\\AD712 160 64 M180
SYMATTR InstName U1
SYMBOL cap 464 -16 R90
WINDOW 0 0 32 VBottom 2
WINDOW 3 32 32 VTop 2
SYMATTR InstName C3
SYMATTR Value 0.795µ
SYMBOL cap 560 16 R270
WINDOW 0 32 32 VTop 2
WINDOW 3 0 32 VBottom 2
SYMATTR InstName C4
SYMATTR Value 0.795µ
SYMBOL res 816 -160 R90
WINDOW 0 0 56 VBottom 2
WINDOW 3 32 56 VTop 2
SYMATTR InstName R7
SYMATTR Value 1500k
SYMBOL res 752 128 R180
WINDOW 0 36 76 Left 2
WINDOW 3 36 40 Left 2
SYMATTR InstName R8
SYMATTR Value 1500k
SYMBOL OpAmps\\AD712 912 48 M180
SYMATTR InstName U2
TEXT -280 224 Left 2 ;LOW PASS FILTER
TEXT -216 272 Left 2 ;20K Hz
TEXT -488 336 Left 2 !.ac lin 100 0.2 30k
TEXT 472 208 Left 2 ;HIGH PASS FILTER
TEXT 536 256 Left 2 ;20 Hz
