Version 4
SHEET 1 904 680
WIRE -192 -16 -192 -48
WIRE 528 -16 448 -16
WIRE 672 -16 592 -16
WIRE 864 -16 672 -16
WIRE 672 0 672 -16
WIRE -192 96 -192 64
WIRE -192 96 -256 96
WIRE 320 96 256 96
WIRE 448 96 448 -16
WIRE 448 96 400 96
WIRE 528 96 448 96
WIRE 672 96 672 80
WIRE 672 96 592 96
WIRE 736 96 672 96
WIRE 448 112 448 96
WIRE 864 112 864 -16
WIRE 864 112 800 112
WIRE -192 128 -192 96
WIRE 256 128 256 96
WIRE 736 128 672 128
WIRE 256 240 256 208
WIRE 448 240 448 192
WIRE 672 240 672 128
WIRE -192 256 -192 208
FLAG 256 240 0
FLAG 672 240 0
FLAG -192 256 VEE
FLAG -192 -48 VCC
FLAG -256 96 0
FLAG 768 144 VEE
FLAG 768 80 VCC
FLAG 864 112 OUT
FLAG 448 240 0
SYMBOL voltage 256 112 R0
WINDOW 123 24 124 Left 2
WINDOW 39 0 0 Left 0
SYMATTR InstName V1
SYMATTR Value AC 1
SYMBOL res 416 80 R90
WINDOW 0 0 56 VBottom 2
WINDOW 3 32 56 VTop 2
SYMATTR InstName R1
SYMATTR Value 10K
SYMBOL cap 592 80 R90
WINDOW 0 0 32 VBottom 2
WINDOW 3 32 32 VTop 2
SYMATTR InstName C1
SYMATTR Value 400p
SYMBOL cap 592 -32 R90
WINDOW 0 0 32 VBottom 2
WINDOW 3 32 32 VTop 2
SYMATTR InstName C2
SYMATTR Value 1600p
SYMBOL res 656 -16 R0
SYMATTR InstName R2
SYMATTR Value 500K
SYMBOL Misc\\battery -192 -32 R0
SYMATTR InstName V2
SYMATTR Value 5
SYMBOL Misc\\battery -192 112 R0
SYMATTR InstName V3
SYMATTR Value 5
SYMBOL OpAmps\\AD712 768 48 R0
SYMATTR InstName U3
SYMBOL memristor 432 96 R0
SYMATTR InstName U1
SYMATTR SpiceLine Ron=100 Roff=16K Rinit=150 D=10N uv=10F p=10
TEXT -48 -32 Left 2 !.ac lin 1000 1K 35K
